data/projects/lehigh1mg/circuit_plus_mgAll.dss
clear
set defaultbasefrequency=60
new object=circuit.lehigh basekv=115 pu=1.0001 phases=3 bus1=sourcebus angle=30 mvasc3=20000 mvasc1=21000
edit object=vsource.source basekv=115 bus1=sourcebus.1.2.3 pu=1.00 r1=0 x1=0.0001 r0=0 x0=0.0001
new object=vsource.secondsource basekv=4.16 bus1=680.1.2.3 pu=1.00 r1=0 x1=0.0001 r0=0 x0=0.0001
new object=transformer.sub phases=3 windings=2 xhl=0.008 buses=[sourcebus.1.2.3,650.1.2.3] conns=[delta,wye] kvs=[115,4.16] kvas=[5000,5000] %rs=[0.0005,0.0005]
new object=transformer.reg1 phases=1 bank=reg1 xhl=0.01 kvas=[1666,1666] buses=[650.1,rg60.1] kvs=[2.4,2.4] %loadloss=0.01
new object=regcontrol.reg1 transformer=reg1 winding=2 vreg=121 band=2 ptratio=20 ctprim=700 r=3 x=9
new object=transformer.reg2 phases=1 bank=reg1 xhl=0.01 kvas=[1666,1666] buses=[650.2,rg60.2] kvs=[2.4,2.4] %loadloss=0.01
new object=regcontrol.reg2 transformer=reg2 winding=2 vreg=121 band=2 ptratio=20 ctprim=700 r=3 x=9
new object=transformer.reg3 phases=1 bank=reg1 xhl=0.01 kvas=[1666,1666] buses=[650.3,rg60.3] kvs=[2.4,2.4] %loadloss=0.01
new object=regcontrol.reg3 transformer=reg3 winding=2 vreg=121 band=2 ptratio=20 ctprim=700 r=3 x=9
new object=transformer.xfm1 phases=3 windings=2 xhl=2 buses=[633.1.2.3,634.1.2.3] conns=[wye,wye] kvs=[4.16,0.480] kvas=[500,500] %rs=[0.55,0.55] xht=1 xlt=1
new object=linecode.mtx601 nphases=3 basefreq=60 rmatrix=[0.3465|0.1560,0.3375|0.1580,0.1535,0.3414] xmatrix=[1.0179|0.5017,1.0478|0.4236,0.3849,1.0348] units=mi
new object=linecode.mtx602 nphases=3 basefreq=60 rmatrix=[0.7526|0.1580,0.7475|0.1560,0.1535,0.7436] xmatrix=[1.1814|0.4236,1.1983|0.5017,0.3849,1.2112] units=mi
new object=linecode.mtx603 nphases=2 basefreq=60 rmatrix=[1.3238|0.2066,1.3294] xmatrix=[1.3569|0.4591,1.3471] units=mi
new object=linecode.mtx604 nphases=2 basefreq=60 rmatrix=[1.3238|0.2066,1.3294] xmatrix=[1.3569|0.4591,1.3471] units=mi
new object=linecode.mtx605 nphases=1 basefreq=60 rmatrix=[1.3292] xmatrix=[1.3475] units=mi
new object=linecode.mtx606 nphases=3 units=mi rmatrix=[0.791721|0.318476,0.781649|0.28345,0.318476,0.791721] xmatrix=[0.438352|0.0276838,0.396697|-0.0184204,0.0276838,0.438352] cmatrix=[383.948|0,383.948|0,0,383.948]
new object=linecode.mtx607 nphases=1 basefreq=60 rmatrix=[1.3425] xmatrix=[0.5124] cmatrix=[236] units=mi
new object=loadshape.solar_670_shape npts=8760 interval=1 useactual=yes mult=[0.0,0.0,0.0,0.0,0.0,0.0,0.0,0.0,436.10655457522927,1015.2406337268104,1398.2284664116248,1609.0083024385156,1691.8582993201233,1629.2408924141153,1442.9707197952105,1120.414850213714,606.984806402313,40.54620128242136,0.0,0.0,0.0,0.0,0.0,0.0,0.0,0.0,0.0,0.0,0.0,0.0,0.0,0.0,161.10878499398717,539.535258873708,925.0994277486848,1141.486792752233,1324.0257198543509,1557.393450169724,946.9225943845838,1028.5075213576424,522.0744512820072,18.472152805108035,0.0,0.0,0.0,0.0,0.0,0.0,0.0,0.0,0.0,0.0,0.0,0.0,0.0,0.0,204.48789001543977,896.181919636868,1273.8038659118265,1499.252116456997,1590.305878481514,1533.0309044421144,769.3032256571712,865.4343244382459,421.08562619479136,16.767151282294208,0.0,0.0,0.0,0.0,0.0,0.0,0.0,0.0,0.0,0.0,0.0,0.0,0.0,0.0,304.02543827498323,896.9715222595632,1298.2708865139057,1122.3707335779422,915.2802109753644,598.9615624710727,1403.5090672096685,650.7370359754443,353.8428962748312,13.587419388559708,0.0,0.0,0.0,0.0,0.0,0.0,0.0,0.0,0.0,0.0,0.0,0.0,0.0,0.0,198.68491484504588,675.0462781956712,853.1965498566154,1124.2505706049712,1089.7639120418123,902.0716018459376,916.9532303937486,699.8892662031565,338.7722179541696,27.26225652922701,0.0,0.0,0.0,0.0,0.0,0.0,0.0,0.0,0.0,0.0,0.0,0.0,0.0,0.0,163.63252839019887,215.63898375989532,574.4796168869261,347.9318926628084,731.759077910542,777.259662525825,643.8559085290568,346.139473387887,235.23832806778896,40.98613289668637,0.0,0.0,0.0,0.0,0.0,0.0,0.0,0.0,0.0,0.0,0.0,0.0,0.0,0.0,475.9562566945169,1112.513848992738,1558.657809364841,1819.9750560979617,1912.460194974061,1853.3956445134668,1654.159216045368,1302.260831719857,740.9457597295881,76.84588981002295,0.0,0.0,0.0,0.0,0.0,0.0,0.0,0.0,0.0,0.0,0.0,0.0,0.0,0.0,132.44500157731167,784.5515823357748,1068.6834409421122,1148.5925056430597,742.1376261546645,755.6170171015955,835.1501143971369,506.2838202549637,336.93857730020557,17.475021860336135,0.0,0.0,0.0,0.0,0.0,0.0,0.0,0.0,0.0,0.0,0.0,0.0,0.0,0.0,11.669203836215186,23.295054153092455,82.46479020158866,309.6621065023432,403.7008649402901,288.3023250239577,123.28461615524108,61.64088665075699,140.94086994067828,2.870571550914984,0.0,0.0,0.0,0.0,0.0,0.0,0.0,0.0,0.0,0.0,0.0,0.0,0.0,0.0,7.8313513046625935,205.24835338743256,225.92656068475156,232.7088989641231,267.47842147312605,424.73727180722057,629.1434297780069,467.8420414440103,178.26611795032255,7.557015919999758,0.0,0.0,0.0,0.0,0.0,0.0,0.0,0.0,0.0,0.0,0.0,0.0,0.0,0.0,423.79841936385367,1042.2989155011198,1476.7672756161214,1736.2714923847996,1835.6313622864009,1785.8906613371837,1594.4827413200208,1265.54111155408,731.4619996960624,88.98487522463743,0.0,0.0,0.0,0.0,0.0,0.0,0.0,0.0,0.0,0.0,0.0,0.0,0.0,0.0,440.69136692357097,1048.55035084696,1465.016339735253,1716.6948909067223,1591.5858733721304,1502.1610665332278,1582.2449667383903,1247.564326010915,724.682504270418,98.11541068257377,0.0,0.0,0.0,0.0,0.0,0.0,0.0,0.0,0.0,0.0,0.0,0.0,0.0,0.0,189.64179713921715,616.9170266112848,1168.9700811587404,1234.34434546658,1350.1160099345907,1475.793598214598,1250.0973086817396,1016.5000179279052,655.96220112581,91.99261446788384,0.0,0.0,0.0,0.0,0.0,0.0,0.0,0.0,0.0,0.0,0.0,0.0,0.0,0.0,196.7034457972739,807.3576656478102,843.2287939760552,1603.9430478102977,1717.161118917963,1681.0014409364194,1503.87743947095,1180.23133548512,645.3213996253645,96.51843760138884,0.0,0.0,0.0,0.0,0.0,0.0,0.0,0.0,0.0,0.0,0.0,0.0,0.0,0.0,228.36004347512863,577.679959470182,944.9731074412416,1019.9213923884412,1108.369678972093,1066.4276365096775,855.82192527357,551.4610302587918,504.0081158464393,85.87195039348923,0.0,0.0,0.0,0.0,0.0,0.0,0.0,0.0,0.0,0.0,0.0,0.0,0.0,0.0,175.81842089131013,833.826765987183,1449.3131264603169,1691.2812000135264,1791.194715678476,1749.745197624276,1567.5296451336137,928.8790017788326,747.0159631503269,139.81865343191504,0.0,0.0,0.0,0.0,0.0,0.0,0.0,0.0,0.0,0.0,0.0,0.0,0.0,0.0,23.184893571168264,550.193117496516,515.7093017870841,528.1801903743348,769.02960098594,1239.3897001187077,626.8705682232096,456.9389866872421,59.52224991065361,0.9381417299350778,0.0,0.0,0.0,0.0,0.0,0.0,0.0,0.0,0.0,0.0,0.0,0.0,0.0,0.0,300.2657642209253,333.59040632314185,176.42465944860908,218.3112662633468,1737.137141344694,1698.1324774957795,839.1571167254506,1205.3749552742436,710.8655244433969,141.43339434889424,0.0,0.0,0.0,0.0,0.0,0.0,0.0,0.0,0.0,0.0,0.0,0.0,0.0,0.0,0.0,153.4465834860856,577.7552950939495,1534.7913416126062,1661.7396855086165,624.5913102475265,411.2521951528356,477.3783942714867,178.6655388989767,147.57680125310543,0.0,0.0,0.0,0.0,0.0,0.0,0.0,0.0,0.0,0.0,0.0,0.0,0.0,0.0,466.46396809981024,1103.4671777197505,1527.9393534169212,1771.3999251768455,1859.8944081335624,1819.304853331803,1652.0405793052648,1330.9274579902594,804.4316584492174,180.7408221197422,0.0,0.0,0.0,0.0,0.0,0.0,0.0,0.0,0.0,0.0,0.0,0.0,0.0,0.0,136.37666828185775,364.90586155374746,954.727649292271,1686.492412910267,1804.292453512547,1782.7137722971763,1617.9647131056684,1298.4833898300046,795.7986223935193,184.76843513757711,0.0,0.0,0.0,0.0,0.0,0.0,0.0,0.0,0.0,0.0,0.0,0.0,0.0,0.0,454.7386179024853,1058.1563535907496,1481.9171051427195,1751.3769956636177,1864.5374989833097,1825.081532105222,1644.2006994394212,1312.4702301672187,795.2044659645605,187.44711406191448,0.0,0.0,0.0,0.0,0.0,0.0,0.0,0.0,0.0,0.0,0.0,0.0,0.0,0.0,449.6264561877709,1071.988258399838,1521.7611215545533,1800.4190653094056,1917.1437964894192,1876.2244706553188,1696.60586504434,1367.285425019266,851.3629092026512,214.55443506301583,0.0,0.0,0.0,0.0,0.0,0.0,0.0,0.0,0.0,0.0,0.0,0.0,0.0,0.0,123.09272352866344,423.265384290027,1411.9438142179029,1171.8527348379953,1773.5825261258085,1465.2025466543764,1545.8841568556566,1065.8882050149646,663.4588064041094,142.089382846417,0.0,0.0,0.0,0.0,0.0,0.0,0.0,0.0,0.0,0.0,0.0,0.0,0.0,0.0,127.79622502011068,758.7292312193118,824.4275808520381,1248.7711174180586,1784.4244595274445,1765.4249573559644,1325.6546750399652,1240.042135049072,722.1090109339825,163.8862530853404,0.0,0.0,0.0,0.0,0.0,0.0,0.0,0.0,0.0,0.0,0.0,0.0,0.0,0.0,254.55836199699743,508.13167517756307,812.533791571384,626.6076042534551,332.77663944376627,99.3982484269168,287.9085897827577,551.7645048941571,225.3963684646519,74.2404143691578,0.0,0.0,0.0,0.0,0.0,0.0,0.0,0.0,0.0,0.0,0.0,0.0,0.0,0.0,378.4755131065129,682.5279584919034,468.1483589331027,1383.8478908332108,1891.1700634119895,1890.7706424633348,1732.4393255607013,1407.580744460273,878.8085297972748,243.64393582532097,0.0,0.0,0.0,0.0,0.0,0.0,0.0,0.0,0.0,0.0,0.0,0.0,0.0,0.0,528.9058287881709,1204.342999371315,1662.5847237789897,1933.802919330084,2032.6119863220647,1985.205268282777,1786.4791320586885,1452.4750905182573,931.0040349398218,270.8855816650267,0.0,0.0,0.0,0.0,0.0,0.0,0.0,0.0,0.0,0.0,0.0,0.0,0.0,0.0,269.1741837213269,1127.6314343998963,1248.9957028624976,1395.777215785453,1403.1885354519409,1468.83997799817,1259.735293529959,911.33717285591,549.9280213864661,234.41390048693697,0.0,0.0,0.0,0.0,0.0,0.0,0.0,0.0,0.0,0.0,0.0,0.0,0.0,0.0,53.37528943928354,257.57818336858395,316.6718730798808,889.0818924534957,948.5487067164712,500.69974482155465,395.2426643888071,220.30197458573173,466.92735325732366,108.06824158106684,0.0,0.0,0.0,0.0,0.0,0.0,0.0,0.0,0.0,0.0,0.0,0.0,0.0,0.0,84.74973388472598,549.7418144673426,1094.7737310223522,1029.4428202338504,880.4694670873189,1072.7984717120548,994.422415883433,837.8458504438369,257.96552218889803,20.203450724897316,0.0,0.0,0.0,0.0,0.0,0.0,0.0,0.0,0.0,0.0,0.0,0.0,0.0,0.0,428.98094170831325,1002.320574250682,312.94986683770657,460.7860784934076,688.7445688795868,933.5192497748524,725.0321752788484,1275.7533528551687,817.077382540683,244.11869239774265,0.0,0.0,0.0,0.0,0.0,0.0,0.0,0.0,0.0,0.0,0.0,0.0,0.0,0.0,132.24386967612105,382.2060479098684,430.1024475036447,589.6114165627199,1294.9454583666586,1137.1933729109169,1059.1122631564792,551.1113592503614,341.7593465078947,236.3107946363284,0.0,0.0,0.0,0.0,0.0,0.0,0.0,0.0,0.0,0.0,0.0,0.0,0.0,0.0,455.2112423346117,1026.3561917996778,202.87883480591475,349.11238767297675,362.2044397995935,400.8942575982342,444.21153055112296,317.2397331118642,85.33251889877656,72.59937705520318,0.0,0.0,0.0,0.0,0.0,0.0,0.0,0.0,0.0,0.0,0.0,0.0,0.0,0.0,455.6859989070334,263.2262230108522,675.1393816552329,1068.336612787409,1804.167367948555,1783.1067968249445,1613.9889821683523,1284.8931275877178,807.8153650978696,249.93019612931772,0.0,0.0,0.0,0.0,0.0,0.0,0.0,0.0,0.0,0.0,0.0,0.0,0.0,0.0,122.68193116510096,46.35770501399646,1402.0606332357231,1666.5576118625786,1784.2673918590233,875.3928410441929,1620.674663421004,1321.9447509261313,863.4933660560847,276.91811727388193,0.0,0.0,0.0,0.0,0.0,0.0,0.0,0.0,0.0,0.0,0.0,0.0,0.0,0.0,181.8658814822325,704.1357789579763,968.6356004385584,950.6389149193036,350.52883954249234,341.77071792280304,550.925152331238,9.792920376345029,125.6427633218506,23.01005806695309,0.0,0.0,0.0,0.0,0.0,0.0,0.0,0.0,0.0,0.0,0.0,0.0,0.0,0.0,474.8077437887783,1083.7420371344338,1510.5489064549656,1778.2718133486203,1901.8542184317728,1876.2301563627732,1700.2838070537446,1393.7282289616635,905.8462008820628,300.0212788003967,0.0,0.0,0.0,0.0,0.0,0.0,0.0,0.0,0.0,0.0,0.0,0.0,0.0,0.0,37.62587979128254,247.66017742824752,1005.0077817362004,1196.537944463628,1471.850560095144,933.0821610143144,1220.751240370566,1369.602350806833,910.5269595436934,311.38487586095124,0.0,0.0,0.0,0.0,0.0,0.0,0.0,0.0,0.0,0.0,0.0,0.0,0.0,0.0,524.3103557383525,537.5736898020256,707.4292250007938,1775.7828949105651,1888.1971491268991,1172.1355987838394,1681.1997299838831,1386.945890682292,930.747467390953,323.73636459166465,0.0,0.0,0.0,0.0,0.0,0.0,0.0,0.0,0.0,0.0,0.0,0.0,0.0,4.7241121809685325,510.75776130794947,1098.1162162919616,1497.8186074651192,1746.414083769575,1840.120228321454,1825.7282813281315,1637.7680321684795,1317.1680459512118,843.7007076947498,280.5761593071969,0.0,0.0,0.0,0.0,0.0,0.0,0.0,0.0,0.0,0.0,0.0,0.0,0.0,4.575573073728811,175.49149271269638,386.03892544739864,513.2409940385504,788.9672448873557,1808.2589451752497,1780.6413319301378,1618.3840340304123,1325.8941854664715,476.2533349089964,178.19078232655502,0.0,0.0,0.0,0.0,0.0,0.0,0.0,0.0,0.0,0.0,0.0,0.0,0.0,0.0,0.0,21.39247429624685,99.65765882951248,152.08272441052088,331.57624445750844,401.0626966815634,259.13393507072624,220.95156666236855,172.46385349336046,69.95907665618135,0.0,0.0,0.0,0.0,0.0,0.0,0.0,0.0,0.0,0.0,0.0,0.0,0.0,5.295525780110807,6.018321340219877,295.2474166792044,565.9929877981725,1441.5166001138111,2061.6780335411213,2050.0287296809956,1867.830945026127,1539.705214279857,1036.554218832131,378.770459180697,0.0,0.0,0.0,0.0,0.0,0.0,0.0,0.0,0.0,0.0,0.0,0.0,0.0,17.8012393255181,597.7895960220858,1214.9894865792146,1621.0335737040473,1887.3229716058236,2011.3886618225783,1982.5528857554152,1811.219777331999,1134.089687354381,984.4781135461212,355.4981478574212,0.0,0.0,0.0,0.0,0.0,0.0,0.0,0.0,0.0,0.0,0.0,0.0,0.0,20.585103837757263,616.3022594928046,1260.6158674719206,1690.9308182916643,1959.3040279753875,2074.3379719012223,2033.739888538282,1849.3090422807952,1515.4627791222165,1030.8940970615229,389.87109227149705,0.0,0.0,0.0,0.0,0.0,0.0,0.0,0.0,0.0,0.0,0.0,0.0,0.0,23.75559645687877,611.4814902851155,1216.1905922789042,1615.0237809250086,1861.144553060044,1964.86536057898,1929.3261354233712,1763.2508849681822,1457.3193132691947,985.8945654156367,373.9610613879163,0.0,0.0,0.0,0.0,0.0,0.0,0.0,0.0,0.0,0.0,0.0,0.0,0.0,20.876496344782556,573.7511356193629,1171.3076176358286,1571.376736939779,1827.6109612088871,1936.6905480033615,1897.7477162230111,1741.7624643586466,1418.2123066861054,940.4231200510563,317.09972256580573,0.0,0.0,0.0,0.0,0.0,0.0,0.0,0.0,0.0,0.0,0.0,0.0,0.0,16.799133386723813,515.5842162230929,1072.160251050326,896.1989767592304,1004.369561074472,1285.7530908401586,1799.9528372981654,1441.7589533940445,1050.269566638409,785.2743778958841,253.98979125158223,0.0,0.0,0.0,0.0,0.0,0.0,0.0,0.0,0.0,0.0,0.0,0.0,0.0,22.59286928250469,558.1936185979396,1139.8137733338488,1536.924903334777,1781.760705585174,1876.373009762559,1881.5519785398592,1701.4579056430268,1061.6800707854602,927.1711574022916,353.34468615916114,0.0,0.0,0.0,0.0,0.0,0.0,0.0,0.0,0.0,0.0,0.0,0.0,0.0,29.225957741204752,587.0819874590541,1161.44504734317,1568.453572594913,1814.3881378108256,1414.1150437519573,1147.77305305623,976.6908264742284,1402.214858050417,488.0717885658831,355.47469431417284,0.0,0.0,0.0,0.0,0.0,0.0,0.0,0.0,0.0,0.0,0.0,0.0,0.0,0.0,11.313847120330683,48.64549155086087,113.18893185696244,536.9383119940242,918.1017432994876,615.1366894647034,559.2134923725281,1356.9502302944811,400.6547471717281,349.53810501860636,0.0,0.0,0.0,0.0,0.0,0.0,0.0,0.0,0.0,0.0,0.0,0.0,0.0,35.8043212656586,616.5240020835165,1215.9923032314405,1614.1439176964782,1859.4253372685948,1948.0775986071644,1904.2933869296037,1745.4553313501185,1446.829893729716,999.1294709420392,265.33348833604725,0.0,0.0,0.0,0.0,0.0,0.0,0.0,0.0,0.0,0.0,0.0,0.0,0.0,0.0,0.0,156.9148650331183,494.9877409704272,744.2676343096763,333.0829569328588,207.92134660431577,286.3059309941186,330.21807108939794,142.91096757354194,125.33644583275816,0.0,0.0,0.0,0.0,0.0,0.0,0.0,0.0,0.0,0.0,0.0,0.0,0.0,39.7153772806834,56.671578335828166,175.97548855973108,223.1405640322171,953.7426004758393,1235.297412178582,1386.8094337033924,641.3314544194134,582.657796346292,924.6268033165584,220.46472796160683,0.0,0.0,0.0,0.0,0.0,0.0,0.0,0.0,0.0,0.0,0.0,0.0,0.0,49.26025866934105,598.5912807731212,985.419808843215,1547.061098298666,1787.4847915646417,1877.0375268212624,1846.660213320592,1702.571593590609,365.1915683533186,961.524201840278,382.684358049449,0.0,0.0,0.0,0.0,0.0,0.0,0.0,0.0,0.0,0.0,0.0,0.0,0.0,0.0,49.7819223282595,225.128429500875,289.14736329433106,398.5069711809222,433.8770465397699,276.07023614978146,551.0097272296185,345.2098602191332,325.58990522171825,158.96385185690832,0.0,0.0,0.0,0.0,0.0,0.0,0.0,0.0,0.0,0.0,0.0,0.0,0.0,71.75718163855692,528.6698719288236,1016.4417394265,1797.0005337025973,2060.579270575606,1880.983407794444,1682.4619570387051,1453.9235244922024,1155.482161650628,692.509928641099,177.05079798199756,0.0,0.0,0.0,0.0,0.0,0.0,0.0,0.0,0.0,0.0,0.0,0.0,0.0,108.03910233036429,773.8674273159914,1373.8836885198098,1747.6144787558328,1961.545618139187,2053.2930364731105,2015.8860564188128,1843.5622134715109,1546.56857389045,1099.253357782792,464.57489179816827,0.0,0.0,0.0,0.0,0.0,0.0,0.0,0.0,0.0,0.0,0.0,0.0,0.0,15.149567511587968,160.2111539296629,413.5719637941296,623.8713575411443,482.09966359872817,575.5989905419623,1497.704893316036,844.1150536254712,1258.1440061562282,997.1444483271084,412.6451934791028,1.4804160783748237,0.0,0.0,0.0,0.0,0.0,0.0,0.0,0.0,0.0,0.0,0.0,0.0,122.64355263978544,746.3692139274173,1348.411008411777,1740.660858539405,1963.515715772051,2063.301303019282,2023.5653150490768,1795.7731316059317,1454.6839878641952,996.1451852420412,369.8168913672712,0.6467492229097885,0.0,0.0,0.0,0.0,0.0,0.0,0.0,0.0,0.0,0.0,0.0,0.0,127.41172905352364,805.3584287642442,1409.2303103354088,1806.32651535427,2036.027675075146,2120.383673718672,2080.140947071616,1881.6685355426696,1550.599740475444,1079.0179249534651,461.08031385416007,3.911056015024798,0.0,0.0,0.0,0.0,0.0,0.0,0.0,0.0,0.0,0.0,0.0,0.0,139.35811112812874,783.1763518453018,1384.8187253810074,1783.354835812632,2021.729542254818,2117.2593774726156,2062.5607396233786,1889.8467150020351,1583.0260407999046,1120.412007359987,489.6602330858868,8.854067932978182,0.0,0.0,0.0,0.0,0.0,0.0,0.0,0.0,0.0,0.0,0.0,0.0,84.00064192764145,714.348020259065,1281.9614346816709,972.2175961346742,971.7307574339123,1547.8947651541307,1837.695274092258,1581.4724212380574,1386.2493915191585,1061.4903102991782,462.0134805900728,6.9337202403383476,0.0,0.0,0.0,0.0,0.0,0.0,0.0,0.0,0.0,0.0,0.0,0.0,54.561470156906005,466.4021360312463,483.05841601818463,422.4025781838594,452.456517073075,297.430017628167,700.4343834053234,231.03019383828473,353.1897506310355,151.66908919323131,19.879365400010652,0.0,0.0,0.0,0.0,0.0,0.0,0.0,0.0,0.0,0.0,0.0,0.0,0.0,140.17116729407246,586.2859884154727,1345.050755306373,1793.4945843436808,1901.4604831905729,2116.0618253400853,1803.823382647579,1667.519207135762,1309.3196375241866,917.4834226138483,219.09802603231503,0.0,0.0,0.0,0.0,0.0,0.0,0.0,0.0,0.0,0.0,0.0,0.0,0.0,114.31399121945276,840.9353217317366,1442.423470452748,1852.0836675184212,2108.09685991025,2212.521984440069,2171.567833647812,1983.485341777896,1662.5385274059245,1190.1464985717294,493.95578506749865,5.604686122930321,0.0,0.0,0.0,0.0,0.0,0.0,0.0,0.0,0.0,0.0,0.0,0.0,129.32070533125517,838.8017600095659,1406.2659246115004,1762.0327221461305,1972.6206655464437,2043.0751094645675,2015.5328318432237,1851.2762970599315,1527.552014596607,1112.6275631418212,497.7858197513018,12.28183881440006,0.0,0.0,0.0,0.0,0.0,0.0,0.0,0.0,0.0,0.0,0.0,0.0,122.60019912044751,700.140148044571,968.6149897490372,1311.546302705919,1347.9447804005365,1384.133597632782,1314.5796276327092,1030.3873583846712,1034.505232008341,902.1711017263852,361.5107834901869,8.011872516331918,0.0,0.0,0.0,0.0,0.0,0.0,0.0,0.0,0.0,0.0,0.0,0.0,99.46789834323016,410.1385072052536,725.1053787623206,1625.5394968614623,1541.8942116497053,1285.881019257877,969.1281248467744,1024.9781184554774,713.4098785291299,473.2278278299558,226.1689139649848,0.0,0.0,0.0,0.0,0.0,0.0,0.0,0.0,0.0,0.0,0.0,0.0,0.0,63.34588817357083,546.7838251643201,1133.4344095702902,1017.3685097415269,2126.3700129544627,2186.5368799477305,2213.390476253691,2020.070737105069,1687.853429132105,1193.78677276925,535.5538422289382,17.617875260121703,0.0,0.0,0.0,0.0,0.0,0.0,0.0,0.0,0.0,0.0,0.0,0.0,173.01465640298142,901.2414885576312,1480.042953823145,1858.6300489384455,2068.687089405227,2151.1753331500645,2103.905782803108,1881.8490567543388,1591.133859629525,1143.3460190897406,521.5037483962967,17.451568317087755,0.0,0.0,0.0,0.0,0.0,0.0,0.0,0.0,0.0,0.0,0.0,0.0,238.94540932789607,916.5715772808888,1501.785099127822,1887.3748536863425,2115.8287113344645,2200.6921593682737,2155.1304533978587,1957.9231117774605,1620.033599905548,1149.2975333673744,524.7090659735749,17.437354048452377,0.0,0.0,0.0,0.0,0.0,0.0,0.0,0.0,0.0,0.0,0.0,0.0,216.00855474441525,923.394426225871,1472.8469803264836,1833.1424438483457,2064.260055438738,2161.411027994401,2138.4919412467148,1972.5737584599467,1654.6865654117407,1197.1882472536963,556.6577668718868,20.6668358824107,0.0,0.0,0.0,0.0,0.0,0.0,0.0,0.0,0.0,0.0,0.0,0.0,217.3432745692774,865.0434320507727,1384.96442163452,1725.7763871378663,1927.440612688888,2017.2726583241945,1981.1741016977833,1623.580770643507,571.6147310434653,510.96742177032144,123.14815917634144,3.185417601188651,0.0,0.0,0.0,0.0,0.0,0.0,0.0,0.0,0.0,0.0,0.0,0.0,39.54622748392237,475.9413317124498,723.140966836911,582.8937532056393,931.6102734971208,1045.1318192401511,1509.6512753906416,1787.7761840716666,1167.2771617642663,928.637359212031,448.25406855102494,16.772836989748363,0.0,0.0,0.0,0.0,0.0,0.0,0.0,0.0,0.0,0.0,0.0,0.0,23.609900203366124,116.01046418108535,261.7458069324773,1220.104491147656,1289.8041574012416,1271.6354792314992,1231.1823814086397,1183.4608173190784,1141.9707885992675,852.0103691389928,26.05546512208325,0.0,0.0,0.0,0.0,0.0,0.0,0.0,0.0,0.0,0.0,0.0,0.0,0.0,227.33732684681303,273.8115888636196,194.5990233258059,484.6759997888908,970.9148584142416,140.9842234600162,130.77482501265456,486.64041171430034,231.15812225600317,601.9543767322521,286.4047201611345,21.5701526541891,0.0,0.0,0.0,0.0,0.0,0.0,0.0,0.0,0.0,0.0,0.0,0.0,220.27283533502924,409.8009183251633,514.7270958243794,1010.2656397044276,1517.884890497685,1694.7288708710382,1698.7358731993518,1726.9249000436057,1564.8076126899375,1168.241599891177,544.4228351439834,23.15859717419281,0.0,0.0,0.0,0.0,0.0,0.0,0.0,0.0,0.0,0.0,0.0,0.0,291.1060895122864,948.5025103434062,1516.9723344512938,1913.4161045397907,2167.391681522737,2268.975373752344,2224.7682875828805,2033.5913494310423,1696.1424798868263,1225.3154420293863,574.261427863373,29.115797159280557,0.0,0.0,0.0,0.0,0.0,0.0,0.0,0.0,0.0,0.0,0.0,0.0,317.3449186997661,1008.7148629963076,1572.30919296226,1952.872071417878,2181.0544365350647,2259.2990103788093,2203.128485012378,2003.5779212074376,1673.8609030874363,1210.935577164404,571.8890664281281,27.909005752136792,0.0,0.0,0.0,0.0,0.0,0.0,0.0,0.0,0.0,0.0,0.0,0.0,302.65589349196443,929.0630765576608,1448.7999913625797,1802.0338062263847,1991.6926604879648,2051.65768486661,2000.3164572690496,1751.1851030370403,1540.0634138494686,924.7085353612118,436.18260091242854,24.411584954401555,0.0,0.0,0.0,0.0,0.0,0.0,0.0,0.0,0.0,0.0,0.0,0.0,178.71528883920055,620.2836761375745,1385.4803995859843,1626.8649774117118,2004.5281450657128,2081.3299706429657,2020.257654737624,1838.4998016970203,1552.220167099877,1137.8728149516876,542.2722162994504,27.67589174651657,0.0,0.0,0.0,0.0,0.0,0.0,0.0,0.0,0.0,0.0,0.0,0.0,182.772041107738,518.1747666818908,577.7204701357928,798.3664300225006,947.3042474974438,950.5863221253528,493.0233290450177,716.0906895937626,518.9238586389753,217.70787055977485,392.60236398978526,24.93040575959293,0.0,0.0,0.0,0.0,0.0,0.0,0.0,0.0,0.0,0.0,0.0,0.0,110.69432771145324,59.213089567834096,331.5264945172847,397.0322408100015,555.0778509130643,888.2894469770731,1054.032083546194,851.9400085092477,542.9687154625841,373.99943991323175,114.11925573914806,0.0,0.0,0.0,0.0,0.0,0.0,0.0,0.0,0.0,0.0,0.0,0.0,0.0,251.38147295699,331.66081935588903,1118.8441735295046,1763.793159316622,1958.435536161766,954.1683178214688,863.9823368971416,858.2440366490388,774.8148083205397,520.8036956660043,75.04778482764738,31.20529464868141,0.0,0.0,0.0,0.0,0.0,0.0,0.0,0.0,0.0,0.0,0.0,0.0,325.17911285815575,963.1183320677358,1462.8244995116777,1792.698585300099,1991.762310404278,2069.4944598637167,2012.805113692094,1846.149921076582,1544.7761546155284,1125.3315657346918,549.4092005812747,43.77852597010676,0.0,0.0,0.0,0.0,0.0,0.0,0.0,0.0,0.0,0.0,0.0,0.0,139.57701086511358,931.4411237003596,1449.583908277821,1457.936923241402,1813.55447095536,1575.7511781123171,2043.1447593808807,826.7182102426295,1215.5289180739271,580.1397386575344,329.9821142300507,46.66046893593005,0.0,0.0,0.0,0.0,0.0,0.0,0.0,0.0,0.0,0.0,0.0,0.0,10.972704673081566,46.26460155443472,87.9699764440713,649.7811264097151,271.8706304814585,158.89988764804912,1143.2088513974093,268.6560736295673,333.8988559525296,261.0166149514823,206.19004868452652,25.807426134395868,0.0,0.0,0.0,0.0,0.0,0.0,0.0,0.0,0.0,0.0,0.0,0.0,188.7555374898012,612.9597742231949,1231.4624025007563,1620.4216494392936,2082.7435796587542,2172.2700185184,2106.024419543211,1927.874858595699,1616.9299143490127,1182.6243076098865,584.9541114443376,56.36028585271334,0.0,0.0,0.0,0.0,0.0,0.0,0.0,0.0,0.0,0.0,0.0,0.0,19.512637269217848,19.36338744854636,271.16489204371186,267.29434669429793,654.5983420502454,457.17494354658936,926.2763691916944,392.7331352612308,308.5199900174904,259.77215573245485,127.37690409536695,3.430613735148955,0.0,0.0,0.0,0.0,0.0,0.0,0.0,0.0,0.0,0.0,0.0,0.0,345.1373674490927,522.8903503016782,1420.302514888938,1781.2241169441886,2020.9250146500551,2125.93932061481,1364.5221711965482,1321.7265619025782,1630.097302099397,974.01570111705,586.7813556774157,56.02767196664544,0.0,0.0,0.0,0.0,0.0,0.0,0.0,0.0,0.0,0.0,0.0,0.0,425.5098173075534,1099.2647291977005,1618.418858988569,1984.476787015214,2185.7380380504223,2238.536228183109,2168.7903655564587,1973.317164709577,1652.6148357581342,1210.0201782642855,604.0296599530176,58.645229535850675,0.0,0.0,0.0,0.0,0.0,0.0,0.0,0.0,0.0,0.0,0.0,1.7021586690867512,418.5874684821234,1053.5573269737724,1538.3441980580194,1878.3637180849432,2077.1218364134616,2135.9994692415007,2091.6999903259075,1898.869932731774,1579.8868195717812,1151.249863164444,571.60051677483,59.55991772253737,0.0,0.0,0.0,0.0,0.0,0.0,0.0,0.0,0.0,0.0,0.0,0.3290603189090462,400.27877976632226,1009.236526655226,1512.1053688705397,1883.7644294529564,2104.2817502085136,2194.015006676804,2145.9523001399934,1955.949460577438,1641.1666637991991,1192.6560276993057,594.0064684247794,65.3799500152937,0.0,0.0,0.0,0.0,0.0,0.0,0.0,0.0,0.0,0.0,0.0,4.409266130694866,410.48249250622973,777.822547563786,1328.0270364752105,1533.5497252473056,2028.3043522121127,1677.390305989601,1651.9823008038595,1536.342118320726,1175.6415481427557,838.4137104758203,426.3136341988843,55.818011504273585,0.0,0.0,0.0,0.0,0.0,0.0,0.0,0.0,0.0,0.0,0.0,4.252198462273917,411.5144484091583,1025.7328961200162,1513.2794674598222,1844.4186231567928,2048.011724961635,2134.696731521068,2101.7317104153267,1927.3205021189192,1051.9660396000418,1178.095641622654,585.485014377869,68.00603614568014,0.0,0.0,0.0,0.0,0.0,0.0,0.0,0.0,0.0,0.0,0.0,5.829271567369324,416.5534066404005,1011.778037887232,1481.0749097260734,1832.443101831485,2055.189930622502,2169.685153767056,2166.21971507375,1997.087686148523,1687.8449005709235,1245.2857787486637,626.4327687492399,73.78840062655271,0.0,0.0,0.0,0.0,0.0,0.0,0.0,0.0,0.0,0.0,0.0,7.277705541314543,475.5973464114736,1123.07291844853,1614.1957997769975,1962.930087904273,2171.0575414038017,2243.540361456195,2171.914661802515,1974.2261671888095,1649.8252855384408,1195.054685531526,600.5613784059848,75.74712684450807,0.0,0.0,0.0,0.0,0.0,0.0,0.0,0.0,0.0,0.0,0.0,7.294762663676998,316.9341263362036,720.0138277371275,1200.190300789489,1916.490650845623,2120.870512419434,2181.470914606082,2116.137871677284,1923.6162637125392,1627.1478413575555,1192.507488592066,609.2292394198396,78.02354196646417,0.0,0.0,0.0,0.0,0.0,0.0,0.0,0.0,0.0,0.0,0.0,10.858990523998523,444.0629914438831,1038.0467170388458,1501.5782815191772,1830.330150798836,2010.628198450586,2056.9240713960185,1996.959047017373,1562.8574150331638,1509.1559081286985,1094.962780795203,557.6868799210882,80.37813556591486,0.0,0.0,0.0,0.0,0.0,0.0,0.0,0.0,0.0,0.0,0.0,9.918005940336371,145.81352122888654,717.1254883504182,474.248412317976,1122.976972135241,1439.7682450716593,1437.3546622573715,1735.924664230096,732.6247268704365,442.0054760589119,733.5195150810337,291.57231752352686,76.0790300171442,0.0,0.0,0.0,0.0,0.0,0.0,0.0,0.0,0.0,0.0,0.0,13.368519651574855,436.63106108787474,1004.0227329197686,936.6023246418662,1219.4023062770682,1367.550521129316,857.7891800527067,963.791377687621,516.2338082997296,381.6033629197283,87.85981586214712,66.7324376759501,1.6609372900441497,0.0,0.0,0.0,0.0,0.0,0.0,0.0,0.0,0.0,0.0,0.0,14.239854318923651,70.104772909694,85.43486163295128,252.67568211624135,506.1878739416749,505.9256206853521,573.8939890191484,793.2777218510347,326.55718620235587,398.5830175181215,260.0635482394801,116.4041994222854,12.170967519044098,0.0,0.0,0.0,0.0,0.0,0.0,0.0,0.0,0.0,0.0,0.0,20.596475252665577,72.86163031152594,228.70687162983188,449.4516206835557,620.0939156512923,539.6631872914264,546.5301004691786,874.4774421440745,935.5618401777564,996.8679808021502,478.06067916598494,117.18171991664067,91.0395477558816,0.0,0.0,0.0,0.0,0.0,0.0,0.0,0.0,0.0,0.0,0.0,24.98868426099798,307.98624423023193,460.5622037624005,640.6150552801903,659.663596678463,1007.7099142037862,1220.2295767116473,1282.1185023500916,1483.9980740709393,1541.7598868111013,1105.3178754960768,557.7010941897236,94.5106721566414,0.0,0.0,0.0,0.0,0.0,0.0,0.0,0.0,0.0,0.0,0.0,34.69987259268957,497.90521960783894,1101.9867616413758,1568.479868991889,1903.2386881968584,2109.4927010902443,2175.9628855098717,2133.2106297352393,1955.2650435426444,1643.705332177478,1206.8731391884126,623.0028657275227,94.27755815102115,0.0,0.0,0.0,0.0,0.0,0.0,0.0,0.0,0.0,0.0,0.0,38.351518205118694,544.6737169853978,1169.815119429113,1628.1883258216658,1938.6172921168877,2111.192016905604,2158.2106854111453,2101.253400275746,1906.534977093403,1583.588215124434,1148.524987867041,593.9631149054414,94.542654261071,0.0,0.0,0.0,0.0,0.0,0.0,0.0,0.0,0.0,0.0,0.0,41.89229252219184,542.7064622062612,1151.3052988121217,1586.1034299594642,1904.6721971887368,2073.9101224152973,2104.6953854258036,2019.9335694127376,1860.7486856785488,1584.818460074826,1170.1008262286848,612.8140779696823,98.07490001696291,0.0,0.0,0.0,0.0,0.0,0.0,0.0,0.0,0.0,0.0,0.0,49.21690515000314,509.43157004426854,1075.0457475833082,1500.1383761064133,1585.0103527014037,1981.541540542008,1738.7461965542193,1979.33264319607,1515.7541716292417,988.844026157478,1117.144857714145,571.1719565754732,102.7961693442044,0.0,0.0,0.0,0.0,0.0,0.0,0.0,0.0,0.0,0.0,0.0,37.32240515591718,295.4336235983278,801.1581123824892,786.0319984141498,970.812515680067,1357.6268294815254,2090.5429488589875,2013.5364378133845,1020.29451694012,851.4972340412558,751.2070402574689,318.8601597362976,71.37552852569696,0.0,0.0,0.0,0.0,0.0,0.0,0.0,0.0,0.0,0.0,0.0,58.56918319865139,353.63892151991354,1050.8551945061868,1301.7910501414576,1559.9285649808437,260.50987627463104,459.2473839136278,522.6863755467604,125.08058899732131,485.53312018760425,245.9523330517067,325.1442878999991,100.83460027252194,0.0,0.0,0.0,0.0,0.0,0.0,0.0,0.0,0.0,0.0,0.0,57.40077031682315,525.5924827692638,428.3889174196497,489.8030864856724,1861.03439247812,2057.0960640465064,2125.2307393233373,1033.135687225322,1904.972828970375,1604.112197607059,1181.8233335722823,620.5338472655573,101.9568167812852,0.0,0.0,0.0,0.0,0.0,0.0,0.0,0.0,0.0,0.0,0.0,61.320354893029176,553.1866424711269,1136.8586268845534,1553.4411727756562,1855.2982243703125,2029.2894010285445,2083.0932506671843,2032.7868218262795,1861.5006204893605,1574.262233472761,1158.2447047599142,607.4716451030748,106.12159749145152,0.0,0.0,0.0,0.0,0.0,0.0,0.0,0.0,0.0,0.0,0.0,48.04493870101605,307.37716281920586,748.9867714966225,1482.1388477334317,1530.102054389794,1598.2011939950362,2027.4152497089697,1744.8981320196117,1795.085871717411,1513.0435106004747,1111.5522537195543,585.199307578298,109.18477238237593,0.0,0.0,0.0,0.0,0.0,0.0,0.0,0.0,0.0,0.0,0.0,70.17442282600736,528.6144362811456,1079.8572775163843,1194.8770071735837,1357.1485193419448,1940.9427464656355,2002.3419905495907,1952.956646316259,1788.6652865748097,1515.987285634862,1110.5409085061474,590.066273159052,111.82507278139776,0.0,0.0,0.0,0.0,0.0,0.0,0.0,0.0,0.0,0.0,0.0,74.17929301402566,533.779190789811,1084.1535402114278,1506.369200762732,1809.7599719431455,1981.8620722997357,2052.0862450659665,1998.9412267785765,1816.6908493297567,1228.8768270359808,1060.2280832443564,529.3343889875276,108.96587264539106,0.0,0.0,0.0,0.0,0.0,0.0,0.0,0.0,0.0,0.0,0.0,79.72854348927801,510.32635825486574,830.4956521324818,1175.6557624113912,1373.5659996158088,1445.617416615118,1291.3222412915004,455.1351959974125,213.4208471393443,95.73736353987468,619.5431127416713,221.60186945243723,48.31927408567888,0.0,0.0,0.0,0.0,0.0,0.0,0.0,0.0,0.0,0.0,0.0,81.5465484477431,525.2982474085114,1060.0738584296626,1464.1997300021503,1746.6386692140138,1526.8874975379028,1916.7763576451944,1542.5032930607315,1103.00094970851,1470.906021944323,1090.2763364261175,582.6663249074732,115.8470000917785,0.0,0.0,0.0,0.0,0.0,0.0,0.0,0.0,0.0,0.0,0.0,76.45499742255,440.18960324074214,929.8057720938592,1338.903794835003,1462.917602971239,1500.7680682069606,1701.9099193856318,1941.8787560552755,1765.4221145022368,1308.1299032394054,988.7566084053706,425.4920494717592,101.08263926020932,0.0,0.0,0.0,0.0,0.0,0.0,0.0,0.0,0.0,0.0,0.0,87.6586839609565,516.3183831981102,898.9359341849728,1051.5431651081392,1535.8524367662374,1782.2852120978198,2025.5673947863704,1973.7833927208171,1809.958260990609,1520.4782838102103,1048.7628541630588,606.7723030862142,124.71883586055093,0.0,0.0,0.0,0.0,0.0,0.0,0.0,0.0,0.0,0.0,0.0,92.51712098052936,505.199982271516,721.7799506150735,1282.1014452277293,1468.991359959137,1378.9837681061838,1585.0224348297434,1949.3718077664157,1481.0542990365525,1512.285890082209,1126.180157572224,612.7906244264341,125.78561672163616,0.0,0.0,0.0,0.0,0.0,0.0,0.0,0.0,0.0,0.0,0.0,94.83688962182336,552.2861685530756,604.4752772747368,1491.7213969339732,1094.6514883120876,1372.4295688384102,1210.6328132424703,1155.6449150265032,61.53001535540104,248.33606590185988,12.208635330927857,604.3445060032913,125.77424530672786,0.0,0.0,0.0,0.0,0.0,0.0,0.0,0.0,0.0,0.0,0.0,103.99443219016692,216.74627528659144,835.0392431017809,1178.5064339862167,812.5743022369946,2010.9949265813784,2080.519757330749,2051.7451026187177,1894.302888219227,1617.8275454133372,622.4200807134722,660.3600958415965,137.21602084477698,0.0,0.0,0.0,0.0,0.0,0.0,0.0,0.0,0.0,0.0,0.0,107.41012094324871,628.6772017667664,1230.6401070601996,1692.8838588021656,2025.2966129688664,2220.1436752823597,2286.045288956572,2215.275998988174,2026.167947636215,1704.605655432332,1272.9467455131128,690.8020842645582,138.67014052617634,0.0,0.0,0.0,0.0,0.0,0.0,0.0,0.0,0.0,0.0,0.0,111.16979499730672,661.937168946692,1258.4766200422962,1686.4718022207458,1996.2888442512144,2159.5368766748265,2208.9520708722935,2166.0306653008997,1957.319716073888,1645.739394019201,1209.702489360285,652.5465123727282,146.1838029268382,0.0,0.0,0.0,0.0,0.0,0.0,0.0,0.0,0.0,0.0,0.0,121.60946459656157,623.1400334198541,1187.0570272838293,1624.1521842426496,1949.3398256619864,2131.9924669131874,2177.87470464133,2120.258588154681,1923.3426390413083,1627.8535797953025,1205.4126230861273,658.3992374833459,142.72760350814556,0.0,0.0,0.0,0.0,0.0,0.0,0.0,0.0,0.0,0.0,0.0,113.83070608584984,620.9887038618893,1165.368185486535,1557.9641530554345,1818.5642899359,1963.7253762344224,2035.0689226556904,2008.5998223163172,1860.14244712125,1592.990243113306,1193.6936693096882,661.0629914256161,148.4047824011163,0.0,0.0,0.0,0.0,0.0,0.0,0.0,0.0,0.0,0.0,0.0,120.09919855405242,614.7635649130247,1150.4282784373186,1561.202163450574,1864.5140454400612,2033.7313599771007,2091.343922896591,2033.5266745087515,1872.963006716931,1578.365892827795,1181.5084875220086,655.7383263948028,150.48290847560887,0.0,0.0,0.0,0.0,0.0,0.0,0.0,0.0,0.0,0.0,0.0,107.91117391264586,452.64059185190314,135.9246545392527,927.1100360471596,1009.6537154396744,809.0420564811029,1637.3309434079415,1457.4820666450698,677.0078472673537,983.7233358815826,622.7839659905378,352.98577587611777,105.50398751924428,0.0,0.0,0.0,0.0,0.0,0.0,0.0,0.0,0.0,0.0,0.0,120.47232310573114,562.0087282996756,1123.195871872226,1510.9859952155034,1785.7620222060334,1933.1057094535188,1975.0043983965968,1924.7534052033695,1762.3155860919744,1490.456327025424,1109.8358807818324,613.8481660129062,151.55821789787535,0.0,0.0,0.0,0.0,0.0,0.0,0.0,0.0,0.0,0.0,0.0,130.09609368531517,588.7777497072549,1098.755147667122,1487.133741731904,1784.0335671399714,1949.1969722622007,1162.8060635650077,1951.3419053992795,1794.68360791503,1517.6283229488165,1127.165206388656,623.2708046912996,149.32302415496187,0.0,0.0,0.0,0.0,0.0,0.0,0.0,0.0,0.0,0.0,0.0,123.96974390346638,579.448925201855,1094.8405380849383,1489.896995554622,1779.7557829941538,1390.6536826558308,1231.6926736526495,1327.2814980852847,595.9303696845781,228.06865096810333,905.0040054654164,252.97276033072083,155.48135604124025,0.0,0.0,0.0,0.0,0.0,0.0,0.0,0.0,0.0,0.0,0.0,130.66750728445743,649.0377201600847,1209.2220470804093,1625.1457616202624,1917.1814643013024,2087.9403162718495,2134.632767312209,2074.679114348471,1895.503283205484,1601.3489437843414,1195.67513835746,667.0493306614064,158.24389915052632,0.0,0.0,0.0,0.0,0.0,0.0,0.0,0.0,0.0,0.0,0.0,111.27426987177677,414.70839457152823,880.6244026154445,1569.764838876527,1856.166716183934,2012.7233816474409,2062.811621464793,2011.5841080163152,1845.3716898687944,1570.5778950424703,1178.517805401125,659.2904721267843,157.80112468253424,0.0,0.0,0.0,0.0,0.0,0.0,0.0,0.0,0.0,0.0,0.0,125.4181778774116,509.8452052615581,1173.2400474568085,1574.2181692399915,1607.1256225577597,1986.306874102019,2024.1019036900625,1959.776652407514,1588.9278051373142,1117.605400017931,797.5647452714652,522.9635537851502,148.31452179528165,0.0,0.0,0.0,0.0,0.0,0.0,0.0,0.0,0.0,0.0,0.0,33.74964873441443,137.72347023506003,203.35145923804112,251.2450159780904,285.7259888337951,797.5704309789195,1211.8708760406123,1025.6277105321144,707.0589433028422,432.92113697404056,110.5926956907103,16.997422434187364,0.0,0.0,0.0,0.0,0.0,0.0,0.0,0.0,0.0,0.0,0.0,0.0,124.36916485212056,475.8631532349553,828.0500872137646,1109.3490420810708,1492.231689177983,1474.246375073637,851.6599874171309,1007.4384216728504,977.2508686584622,213.14651175468143,843.7682254707678,630.6913636323998,166.3140501682633,0.0,0.0,0.0,0.0,0.0,0.0,0.0,0.0,0.0,0.0,0.0,135.27506246261584,601.9074696457552,945.174239342432,623.3056296494564,853.5170816143432,1387.7625004153947,666.8126630886273,612.1431644900924,1788.944596953495,1517.4797838415766,1135.614167665526,644.0947082421313,165.3609834562611,0.0,0.0,0.0,0.0,0.0,0.0,0.0,0.0,0.0,0.0,0.0,0.0,0.0,10.453883867890196,175.49504627985525,443.76307037567665,721.4125117708488,1000.723601169497,1307.5677289148762,373.6433724839155,122.20646387924752,83.83149213088043,99.06847739457598,27.658123910722335,0.0,0.0,0.0,0.0,0.0,0.0,0.0,0.0,0.0,0.0,0.0,137.63320962922538,349.71294052282155,821.0843848689968,1540.8537271855955,1820.89045499808,1982.8066104505565,1627.7661620431948,1291.1886271663277,1278.30907835581,1379.6895065439303,1169.0113025377827,662.2925256625765,169.0012576537819,0.0,0.0,0.0,0.0,0.0,0.0,0.0,0.0,0.0,0.0,0.0,145.679907103714,645.7265062814729,1180.6485242695685,1595.9020360432637,1891.1146277643109,2070.2058840089176,2136.929793123686,2072.446763459285,1889.068483794248,1432.9368675654955,1204.299645851977,546.6814824301453,164.73484492287258,0.0,0.0,0.0,0.0,0.0,0.0,0.0,0.0,0.0,0.0,0.0,151.919260321214,659.2236650641979,1182.40896144006,1563.3208001906771,1830.446707801646,1985.068100590446,2044.1994581136264,2005.2388584974815,1862.4679014699984,1589.134622745959,1200.8455785735798,692.0351720686774,183.0812014505575,0.0,0.0,0.0,0.0,0.0,0.0,0.0,0.0,0.0,0.0,0.0,148.60875715603402,646.1842057315322,1163.380320017877,1546.665230917171,1808.0784239635805,1382.5074853008946,2015.4134319866864,1937.9733857477045,1784.8992160998662,1520.3738089357405,1146.855522015816,662.2427757223527,182.82179104796185,0.0,0.0,0.0,0.0,0.0,0.0,0.0,0.0,0.0,0.0,0.0,149.22068142078714,618.0769109319318,1127.4999524150192,1525.287681602991,1810.6576030074705,1967.4850502884808,1983.730537911856,954.5002209941048,1724.58452071279,988.3515017492622,997.9987258720946,648.3646745401994,186.73853277044077,0.0,0.0,0.0,0.0,0.0,0.0,0.0,0.0,0.0,0.0,0.0,151.17372193128833,611.5689080372231,1111.738460638678,1487.4777270328805,1750.9164533598312,1690.1760406271255,1965.8326415596175,1918.632741128975,1405.438654176921,1225.962901965728,1134.005112456001,658.7631227604116,185.41873792764576,0.0,0.0,0.0,0.0,0.0,0.0,0.0,0.0,0.0,0.0,0.0,146.85116283926928,650.4221899251708,1189.4038030355305,1226.9621650507952,1879.3110990894916,1566.4600214188008,1422.286826790437,2033.7050635801252,1302.1499604245012,1572.790345955567,911.9199578699606,687.4851846784921,187.802470777799,0.0,0.0,0.0,0.0,0.0,0.0,0.0,0.0,0.0,0.0,0.0,148.4922001532239,633.8064206038432,1145.479580811911,1523.903211837905,1802.258391670824,1245.4080214589278,1615.0735308652322,1942.1552235802335,1794.400743969186,1529.711162002321,1152.8617612276958,665.7288251051797,190.8187385822266,0.0,0.0,0.0,0.0,0.0,0.0,0.0,0.0,0.0,0.0,0.0,147.5362905874946,613.0351098469625,1115.9323805995468,1500.8057360188443,1789.102375335348,1960.5428014869613,2022.9384658022568,1578.479606976878,1783.2297502486404,1508.3044734374391,908.5334083675812,661.383523183344,191.46904137229524,0.0,0.0,0.0,0.0,0.0,0.0,0.0,0.0,0.0,0.0,0.0,152.94553051668845,606.6294496864285,1093.2961577977042,1470.186069237941,1404.0072773253385,1895.17990859403,551.1170449578156,1314.099185352833,726.291559479943,1081.061226069801,955.8612372159424,583.0216816233577,183.63769006763263,0.0,0.0,0.0,0.0,0.0,0.0,0.0,0.0,0.0,0.0,0.0,150.30238726393952,618.0186324305267,1111.295686170686,1482.1971262348366,1741.951514131497,1882.0885671808448,1923.4272139396885,1880.424076323642,1243.052717146045,990.60446332797,1114.049700718791,1.839326361418168,0.0,0.0,0.0,0.0,0.0,0.0,0.0,0.0,0.0,0.0,0.0,0.0,154.81399612880915,602.0304230694513,1076.9923916729235,1437.8621116476547,1699.0308192735356,1840.45213149409,1880.40346563412,1696.227054785207,1398.0209380895485,1267.0947311159268,1081.681678895735,542.7178336211696,146.4261562070714,0.0,0.0,0.0,0.0,0.0,0.0,0.0,0.0,0.0,0.0,0.0,151.65700706489125,609.5433747566814,1095.7793905283052,1464.744847204317,1697.9405848692022,1849.1690317347368,1131.979579175459,1563.460810736736,1696.6257650204293,1442.13492079945,1090.334614927523,641.5475113026713,203.17946658755295,0.0,0.0,0.0,0.0,0.0,0.0,0.0,0.0,0.0,0.0,0.0,156.74571523635726,459.4485158148185,1054.600654291609,1399.9391536418927,1640.1638471469737,1787.157863386028,1842.032047452912,1571.4876082351348,1408.2011972862076,954.8790312532378,668.5325895935083,449.4985277700525,150.60515118587315,0.0,0.0,0.0,0.0,0.0,0.0,0.0,0.0,0.0,0.0,0.0,78.80106246081947,422.3528282436355,638.8048681694747,1037.544953356017,1565.7777365243028,1622.956764250414,1716.0218452868376,1549.6466737634416,1570.5196165410655,1279.758223043187,697.6803688572185,589.0869100500744,141.13631613441478,0.0,0.0,0.0,0.0,0.0,0.0,0.0,0.0,0.0,0.0,0.0,81.3951664867763,201.43324368569657,670.4650194144882,1004.1805113016214,1237.681855742167,1275.324792655812,1573.542280766379,1634.783746468482,1555.8341449004226,1253.5655902287724,909.195082572558,653.3951042102605,91.99261446788384,0.0,0.0,0.0,0.0,0.0,0.0,0.0,0.0,0.0,0.0,0.0,0.0,284.5163545729243,588.9149173995862,375.85013768955827,648.1543033643958,999.4002527595432,916.5395951764592,1880.5406333264525,1625.3234399782043,1216.4734562247484,471.7857902768965,358.26424453386613,128.22478521946738,0.0,0.0,0.0,0.0,0.0,0.0,0.0,0.0,0.0,0.0,0.0,136.46408603396537,603.2514287452306,751.5218863077425,1451.067167209923,1022.9348173391418,1014.0196280510312,986.0495009437624,1375.9845574241183,1359.5912414069348,305.68424342473213,314.2582902655933,491.01201003311144,209.19778792777288,0.0,0.0,0.0,0.0,0.0,0.0,0.0,0.0,0.0,0.0,0.0,50.9943994428574,200.72253025392752,293.1692906047118,798.2555587271446,1422.1475269578104,1041.4474808098605,1543.520323981593,537.3640293396538,557.6747977927481,386.31610368578856,217.92677029675977,198.96209308343575,34.06165193096101,0.0,0.0,0.0,0.0,0.0,0.0,0.0,0.0,0.0,0.0,0.0,158.38390969658482,607.3749880763543,535.4230709574927,955.7596051951996,1458.9596398697176,1550.9522543376013,1601.2643688859605,1544.732801096191,1784.843780452188,1523.3374839462167,805.6555069787236,680.8229569690897,221.84635487296575,0.0,0.0,0.0,0.0,0.0,0.0,0.0,0.0,0.0,0.0,0.0,152.17014216262848,647.7698073978088,1165.3561033581948,1151.535569964015,1822.2948247392555,1000.172798259876,1552.2841313087365,1986.7524914237383,1815.6994040924392,1535.4764693608315,1154.26968453603,207.7465111001006,198.5655149885087,0.0,0.0,0.0,0.0,0.0,0.0,0.0,0.0,0.0,0.0,0.0,150.62007616794028,617.4010224583195,1118.547095315025,1496.1278202109409,1777.7792889404045,1527.750303644071,1980.7135593939968,1931.7446932316816,1777.1936610726266,1147.073711039369,864.7634109586559,679.6801297708051,189.2274512084958,0.0,0.0,0.0,0.0,0.0,0.0,0.0,0.0,0.0,0.0,0.0,146.38209197430174,616.1096561527952,1115.0290638277684,1490.497548404467,1766.3545705247177,1924.452773421731,1430.49983120796,1935.495838724558,1784.946123186363,1528.8135309379973,1170.9231216692417,700.5829225125631,217.8421953983792,0.0,0.0,0.0,0.0,0.0,0.0,0.0,0.0,0.0,0.0,0.0,143.9571377451059,593.7534544430696,1075.1708331472996,1445.2151528127367,1695.1481917957817,1841.1052771378857,1454.7223663895106,1851.9294427037275,1708.4236079877949,1477.0735931052138,1132.973867266504,683.7781034183851,221.13208787403792,0.0,0.0,0.0,0.0,0.0,0.0,0.0,0.0,0.0,0.0,0.0,149.12189225377122,596.7228151610004,1087.190418705377,1461.358297701938,1738.635325258863,1906.6309234066916,1467.0823836814054,1024.004441053954,1776.9051114193285,1516.2026318046878,1171.9053276319462,536.0349952222457,164.10515282232527,0.0,0.0,0.0,0.0,0.0,0.0,0.0,0.0,0.0,0.0,0.0,151.62218210673456,614.7521934981165,1124.1546242916827,1504.3003139628524,1782.7045330225633,1957.6836013509544,2032.434307964122,1990.0722338635312,1839.87787504122,1588.6072733795863,1226.2834337234558,742.4460757840523,237.00445094573493,0.0,0.0,0.0,0.0,0.0,0.0,0.0,0.0,0.0,0.0,0.0,148.84187116165424,638.160961800292,1145.0453349051004,1518.8024215380988,1771.0822362728452,1725.677597970851,946.1123810723672,1960.764544077673,1552.1732600133805,1554.7119283916593,1198.0801926105669,702.0285136327811,205.41181747673943,0.0,0.0,0.0,0.0,0.0,0.0,0.0,0.0,0.0,0.0,0.0,114.27348055384196,258.89513535765184,720.7742911091202,1194.9352856749888,1721.259092565543,1638.5292062539042,1530.084286554,1184.2767163387489,850.4510638696917,1181.3009591999323,727.6348078659864,506.2724488400554,112.90677862455014,0.0,0.0,0.0,0.0,0.0,0.0,0.0,0.0,0.0,0.0,0.0,0.0,160.32486807874596,179.00383849249877,412.1846511753165,631.4724376939139,755.9986702144555,924.8457030535434,1360.369472614722,1154.756523236792,1150.8973493022863,765.8640833608408,648.6937348591084,188.8195016986604,0.0,0.0,0.0,0.0,0.0,0.0,0.0,0.0,0.0,0.0,0.0,8.279811480108831,157.33205381756673,371.2738539023976,1132.506928541832,1303.592708690992,1202.801461937808,717.0643669952862,1622.2140687142153,1795.665813877735,1219.886302124103,1107.8067939341315,683.6004250604428,238.3306422094159,0.0,0.0,0.0,0.0,0.0,0.0,0.0,0.0,0.0,0.0,0.0,140.4106777205786,583.8290520818473,1070.985441747612,1464.1620621902666,1767.9515436059028,1458.3214192079888,1551.6018464142385,1747.652857281148,1663.663586768415,1402.759975252584,913.3420954469304,462.92816877675943,180.0414801028815,0.0,0.0,0.0,0.0,0.0,0.0,0.0,0.0,0.0,0.0,0.0,130.90346414380474,176.40973446654192,567.0014901578527,718.5362545124797,1419.8853261044896,996.013703257164,1112.854991439987,1385.9288597614304,1500.5257149267277,958.4404162598322,802.9533745111379,604.9535874143172,219.4214006437699,0.0,0.0,0.0,0.0,0.0,0.0,0.0,0.0,0.0,0.0,0.0,135.83155107969097,268.19268847205393,1098.3237446140383,825.1326085763529,822.1191836256523,1342.002505397516,1282.920187101127,1234.85463771059,760.5017505181438,1238.2205765234478,171.71476153627594,682.7696010587049,202.54408877955152,0.0,0.0,0.0,0.0,0.0,0.0,0.0,0.0,0.0,0.0,0.0,85.7788469339275,111.8371549097378,377.0768290727915,873.1313509043041,851.3543806414701,1591.7777659987078,1585.071474056536,1933.6977337421824,1630.080244977035,1423.7473428927226,985.256344753908,651.4129244490567,237.91416413839931,0.8947882105971688,0.0,0.0,0.0,0.0,0.0,0.0,0.0,0.0,0.0,0.0,114.1597664047589,515.7967195391917,867.7540930795398,628.4909948476429,868.7739668541283,770.0373926321884,827.3244487999286,658.3551732505763,597.2970716138698,921.4122464646674,985.0409985840824,728.2410464232854,231.8866035235664,2.206054492210971,0.0,0.0,0.0,0.0,0.0,0.0,0.0,0.0,0.0,0.0,0.0,201.0430620116554,437.2955781465788,805.4252358268303,731.3219891500041,1073.8595668656858,1270.3469557797018,1182.560343401027,1242.6859890152523,1081.279415093354,539.3369698262445,462.8087689202222,4.257884169728069,0.0,0.0,0.0,0.0,0.0,0.0,0.0,0.0,0.0,0.0,0.0,122.10483185850454,585.4992286465044,1090.352382763317,129.3846695401144,535.3264139307721,1505.3493269881435,1659.880459171109,1627.1570806321686,1782.3143513485222,1538.323587368498,1187.3285198147653,728.0079324176652,239.68881557752644,2.133561722170533,0.0,0.0,0.0,0.0,0.0,0.0,0.0,0.0,0.0,0.0,126.07416637493438,579.5072037032601,1078.9361929088118,1454.800544867005,1705.2033654284496,1866.2915397329152,1925.5899149125617,1899.0852789016003,1784.3192739395429,1549.046120913597,1114.845699762372,623.0959691870845,223.97991659513633,0.8308240017379591,0.0,0.0,0.0,0.0,0.0,0.0,0.0,0.0,0.0,0.0,108.45344826108564,580.3465562661792,1083.3369304783257,1458.8345543057262,1732.2410365132375,1894.5885950187983,1960.653672782317,1892.6327116545697,1760.007188865589,1520.4029481864427,1098.7196119955336,612.0649860125978,163.7142604348523,0.0,0.0,0.0,0.0,0.0,0.0,0.0,0.0,0.0,0.0,0.0,119.53418137579604,519.798746873483,818.0013100019829,1203.3145970355451,1558.6379093887513,1639.432523025683,1272.4862032093265,1330.9210615693737,731.0419680578871,1373.073475207593,957.2485498347556,530.7309408809538,204.30168309631625,0.0,0.0,0.0,0.0,0.0,0.0,0.0,0.0,0.0,0.0,0.0,6.033246322287028,503.2064310954039,749.1672927082918,1044.0941776297684,1660.3815121405062,1823.5044590001264,1889.7152330171575,1856.0530020348513,1733.400920833884,1212.1594256939104,807.7272366323301,29.00776871765167,55.14496588438835,0.0,0.0,0.0,0.0,0.0,0.0,0.0,0.0,0.0,0.0,0.0,23.079707983266452,398.4223962825416,839.6873089455503,1252.0119706669254,1506.590943353444,1505.1865736122686,1658.9302353128337,1628.6282574359304,1287.3031568348465,1109.6169810448475,962.474425698553,608.9520611814496,224.510108815236,0.0,0.0,0.0,0.0,0.0,0.0,0.0,0.0,0.0,0.0,0.0,125.04505332573288,533.6860873302492,1059.622555400489,1425.49001222742,1661.771667613046,1819.50029952554,1643.3464218944346,1127.824037739906,1392.3991948442556,1296.3064745884965,894.701503558493,590.6838831312593,153.82539374521846,0.0,0.0,0.0,0.0,0.0,0.0,0.0,0.0,0.0,0.0,0.0,130.4223111504971,538.6696099138134,1013.1248398404342,1139.9480981724532,781.7655856832404,1547.443462124958,1640.8958819816953,1345.8289865141603,1560.3251430757707,1333.9145865439846,858.3428258160548,269.15712659896445,200.74314094344885,0.0,0.0,0.0,0.0,0.0,0.0,0.0,0.0,0.0,0.0,0.0,121.61515030401569,545.2472627248355,1031.8734601705005,1406.1436819012365,1683.7234733800951,1844.462687389562,1246.2324490397796,1861.1417102063176,1748.0778639133457,1516.3049745388628,1174.595377971192,723.1587346727052,243.4136646734278,0.0,0.0,0.0,0.0,0.0,0.0,0.0,0.0,0.0,0.0,0.0,104.96171317080452,554.1077270786996,1052.1231072684627,1432.953924687858,1696.7074970650826,1858.2768243628564,1599.8337027478096,1339.9329078842045,564.5061752989118,1252.443373720009,1044.8255017510587,484.0960576285673,193.31121058744048,0.0,0.0,0.0,0.0,0.0,0.0,0.0,0.0,0.0,0.0,0.0,95.18087492279956,544.8975917164051,565.9460807116758,1118.0865530112387,1656.8670342204082,1404.5701623632997,1131.2482550541688,313.5767160845268,1202.3878267205184,1347.312245446262,1161.386768841765,618.9979955395045,232.6534633164451,0.8279811480108832,0.0,0.0,0.0,0.0,0.0,0.0,0.0,0.0,0.0,0.0,114.15123784357768,543.7000395838744,1032.835055443684,1416.8719011537892,1199.57198010385,1372.7351756140708,1670.733763987653,1433.3767991797606,864.6148718514162,113.331785256748,539.095327259443,534.9447608179121,217.89478819233017,0.0,0.0,0.0,0.0,0.0,0.0,0.0,0.0,0.0,0.0,0.0,50.60421776881622,387.6828056150803,716.8810029298897,1220.086723311862,1464.8734863354673,1412.7739275062092,997.63128702787,1627.8827190460047,1394.5938779215585,1155.878739745555,641.3641472372748,557.3137553694095,154.5218929083521,0.0,0.0,0.0,0.0,0.0,0.0,0.0,0.0,0.0,0.0,0.0,95.36992469565013,418.50289358374295,712.2030871219862,936.811985104238,832.328582073014,1851.2357863943207,1498.287678330087,1919.509761503778,1551.1242469880897,1251.0795146444443,910.2291706157824,616.5211592297894,233.7081620491904,0.0,0.0,0.0,0.0,0.0,0.0,0.0,0.0,0.0,0.0,0.0,99.3364163583529,482.06768149429865,970.0136737827586,1051.3541153352887,1724.313738895286,1900.7931232781416,1963.4631229780991,1720.384915044467,1566.3285394339237,1350.3228275432357,977.8713214843966,727.6262793048053,244.9814985039102,0.0,0.0,0.0,0.0,0.0,0.0,0.0,0.0,0.0,0.0,0.0,98.9377061231305,538.203381902573,1045.4288974546307,853.883809745136,517.965106219519,1878.716231947101,349.83802608681293,1634.7695321998465,1475.7559304027145,1268.074094224905,853.2455890834075,219.0369046771829,140.5997274934292,0.0,0.0,0.0,0.0,0.0,0.0,0.0,0.0,0.0,0.0,0.0,104.89206325449116,524.8668443554276,1015.3920156877772,1400.766424076472,1170.232308213562,1115.279945669183,1215.9688496881922,1871.310597988068,1727.452249409978,1145.8932160292009,347.9354462299673,472.8753139677983,191.0610918624598,0.0,0.0,0.0,0.0,0.0,0.0,0.0,0.0,0.0,0.0,0.0,105.37534838809408,524.112066690889,1012.1952266716804,1393.6173576663075,1648.5957513014807,1816.4165139450936,1878.212336123977,1840.245313885445,1714.2088153223942,1478.6414269356965,1144.7596281055294,515.2579987579107,10.081470029643242,0.0,0.0,0.0,0.0,0.0,0.0,0.0,0.0,0.0,0.0,0.0,107.71572771890938,336.6009884201153,609.3394000017638,915.7201425896296,1274.9111574385229,1095.7587798387838,1506.153854592906,1896.0164183032216,1759.980892468613,555.6286538226852,123.82120479622664,378.41723460510786,189.4086831335969,0.0,0.0,0.0,0.0,0.0,0.0,0.0,0.0,0.0,0.0,0.0,107.05405351393244,242.1599661797873,469.67568209797435,878.0857342371658,830.8332410125721,1392.6088553066274,1551.4653894353385,1605.499510225872,1616.026597577234,1508.0393773273893,1153.4218034119297,570.9445282773072,222.36233282443007,0.0,0.0,0.0,0.0,0.0,0.0,0.0,0.0,0.0,0.0,0.0,102.72367657416392,246.686500026724,1034.8257637660688,1104.7151905059368,1472.7887018250788,1659.1462921960908,1597.6567875063013,1692.3856486864954,1804.1581286739424,1136.5935307745035,902.5641262541536,224.7233228447667,177.52910812157808,0.0,0.0,0.0,0.0,0.0,0.0,0.0,0.0,0.0,0.0,0.0,96.41680558064589,524.7325195168233,1038.2968881668287,1446.6109939927312,1702.000179991467,1881.8028603812736,1950.8756773880389,1928.0525369536413,1772.2186670502438,1516.6112920279552,758.9161488518672,175.25269299962198,65.5931640448244,0.0,0.0,0.0,0.0,0.0,0.0,0.0,0.0,0.0,0.0,0.0,83.85210282040173,440.5072921447428,957.9535775590704,951.422831834545,1195.666609796279,1865.7613475128153,1934.213711693647,1884.8539531438576,1738.6033431544336,1496.9032085650006,1165.8486277664108,711.6579699198193,225.1078188113537,0.0,0.0,0.0,0.0,0.0,0.0,0.0,0.0,0.0,0.0,0.0,92.27192484656906,516.9246217554091,1019.0088363420496,1401.3669769263167,1683.4761451058396,1855.674191775718,855.4402721607102,1832.180848575162,1078.0300332833062,1261.9854122549398,963.7423384608288,671.776285696102,233.9270617861752,0.0,0.0,0.0,0.0,0.0,0.0,0.0,0.0,0.0,0.0,0.0,93.59527325652292,485.8678662139674,950.300615325782,1325.9403818395365,1590.4899532603426,1759.8757068807113,1380.2836629728893,1784.9809481445195,1465.8528494444452,1409.2566067323844,1069.5753862989825,650.8649643931627,125.45015998184122,0.0,0.0,0.0,0.0,0.0,0.0,0.0,0.0,0.0,0.0,0.0,83.0710287588876,471.5612048324575,925.7227234283464,1300.9055012054737,1583.6962435660623,1747.428271836709,1362.1498097613037,811.8692745126798,1636.2030411917249,1403.917016719504,1071.6357445376805,624.6318209131373,0.0,0.0,0.0,0.0,0.0,0.0,0.0,0.0,0.0,0.0,0.0,0.0,89.8178313666707,484.7435175649089,537.8274144971672,701.9297244657653,1650.8629271488237,1832.594483792452,1895.908389861593,1862.8907759619003,1719.7374551081257,1469.3936237615185,1117.1832362394605,577.0708780591559,177.9896504253644,0.0,0.0,0.0,0.0,0.0,0.0,0.0,0.0,0.0,0.0,0.0,61.183187200697766,317.2809544909068,335.58395749925387,954.1420214244934,1343.5177464340472,603.8661958637107,331.7539228154508,732.5252269899889,1334.989895966251,542.7178336211696,43.58307977637028,253.70479516544287,97.48571858202642,0.0,0.0,0.0,0.0,0.0,0.0,0.0,0.0,0.0,0.0,0.0,87.63807327143519,493.3964535966964,1000.723601169497,1390.8867966614512,1670.6697997787935,1845.2785864092332,1908.9769884449615,1856.097066267621,1317.022349697699,1480.2618535601298,1129.7792103907025,677.0078472673537,198.0232406400689,0.0,0.0,0.0,0.0,0.0,0.0,0.0,0.0,0.0,0.0,0.0,85.6502078027773,481.8608638856538,962.4303614657832,1336.0012411796586,672.1494102477807,1357.5799223950287,1647.5609525448249,1613.5988004943115,1205.234944728185,1305.1605425214746,1025.5111535293042,499.1496788268665,133.47127177278614,0.0,0.0,0.0,0.0,0.0,0.0,0.0,0.0,0.0,0.0,0.0,80.86213141294955,473.92788056024824,422.5312173150096,233.35280533330587,949.7292017266396,1610.576136268998,1494.7760432637162,1517.6254800950894,1343.04867556908,1132.1082183066092,188.5721734244048,228.20013295298065,127.85166066778864,0.0,0.0,0.0,0.0,0.0,0.0,0.0,0.0,0.0,0.0,0.0,76.98590035608143,477.59089758758574,972.9048560231948,1368.433227211573,1662.4304989642958,1842.451368377656,1580.1000336013117,1236.241950329403,1453.851031722162,1535.665519133682,1179.0629226032918,668.6839715544751,178.5489818961666,0.0,0.0,0.0,0.0,0.0,0.0,0.0,0.0,0.0,0.0,0.0,77.86007787715731,470.5292489295289,969.7485776727088,1364.449678426508,383.3865429200367,1344.229170579248,1922.2701724727688,744.1922986859088,1268.1728833919203,1048.929161106093,1069.6130541108662,561.585853807773,163.7554818138949,0.0,0.0,0.0,0.0,0.0,0.0,0.0,0.0,0.0,0.0,0.0,76.04989076644166,471.79147598435065,978.6580812533648,1384.3816366204694,933.1368859485606,352.6972262228196,618.9979955395045,610.3187631107414,1036.3644583458488,1131.816825799584,1064.468910291722,654.7760204081876,201.2178975158706,0.0,0.0,0.0,0.0,0.0,0.0,0.0,0.0,0.0,0.0,0.0,53.48047502718535,142.03110434501193,347.17427214454267,1194.8187286721788,597.4896749538792,1296.793313289258,1326.9431984917624,1441.8691139759685,217.06112133686509,270.730646136901,138.33255164608607,265.6248808430725,106.92328224248696,0.0,0.0,0.0,0.0,0.0,0.0,0.0,0.0,0.0,0.0,0.0,69.33791311681526,408.81871236245854,459.1976339734039,114.01691300497332,1317.4537527507828,1002.2829064387982,1672.9170756500473,1710.481123372766,1238.5155225976318,1197.1384973134725,963.5525779745464,630.9472204678366,193.7831243061351,0.0,0.0,0.0,0.0,0.0,0.0,0.0,0.0,0.0,0.0,0.0,35.550596570517065,231.0067402950364,808.6866997652185,738.0659489040601,1149.691268608574,1450.1610075844171,595.6709592819824,533.729440849587,684.4220097875677,1226.1057553655137,1154.6954018816598,674.929721192861,201.6606719838627,0.0,0.0,0.0,0.0,0.0,0.0,0.0,0.0,0.0,0.0,0.0,63.63443782686904,466.8690747559186,984.2947494807248,1377.8473373287852,1652.6731142595393,1421.0281533027744,1888.6342378874376,1286.6912325700937,969.2560532644928,1148.7581018726617,1116.8854473115491,657.8043703409553,175.59952115432526,0.0,0.0,0.0,0.0,0.0,0.0,0
...